!!>>>>>>>>>>>>>>>>>>>>>>>>>>>>>>>>>>>>>>>>>>>>>>>>>>>>>>>>>>>>>>>>>>>>>>
!! NEMO/TOP1 :  Configuration namelist : used to overwrite defaults values defined in SHARED/namelist_top_ref
!>>>>>>>>>>>>>>>>>>>>>>>>>>>>>>>>>>>>>>>>>>>>>>>>>>>>>>>>>>>>>>>>>>>>>>>
!-----------------------------------------------------------------------
&namtrc_run     !   run information
!-----------------------------------------------------------------------
   ln_rsttr      = _AUTO_
   nn_rsttr      = _AUTO_
   ln_top_euler   = .true.
/
!-----------------------------------------------------------------------
&namtrc     !   tracers definition
!-----------------------------------------------------------------------
!                !    name   !           title of the field              ! initial data ! initial data ! save   !
!                !           !                                           !  units       ! from file    ! or not ! 
!                !           !                                           !              ! or not       !        !
/
!-----------------------------------------------------------------------
&namtrc_dta      !    Initialisation from data input file
!-----------------------------------------------------------------------
!                !    file name        ! frequency (hours) ! variable   ! time interp. !  clim  ! 'yearly'/ ! weights  ! rotation ! land/sea mask !
!                !                     !  (if <0  months)  !   name     !   (logical)  !  (T/F) ! 'monthly' ! filename ! pairing  ! filename      !
/
!-----------------------------------------------------------------------
&namtrc_adv    !   advection scheme for passive tracer 
!-----------------------------------------------------------------------
   ln_trcadv_tvd     =  .true.  !  TVD scheme
   ln_trcadv_muscl   =  .false.   !  MUSCL scheme
/
!-----------------------------------------------------------------------
&namtrc_ldf    !   lateral diffusion scheme for passive tracer 
!-----------------------------------------------------------------------
   rn_ahtrc_0       =  1000.    !  horizontal eddy diffusivity for tracers [m2/s]
   rn_ahtrb_0       =     0.    !  background eddy diffusivity for ldf_iso [m2/s]
   rn_fact_lap      =     1.    !  enhanced zonal eddy diffusivity
/
!-----------------------------------------------------------------------
&namtrc_zdf        !   vertical physics
!-----------------------------------------------------------------------
/
!-----------------------------------------------------------------------
&namtrc_rad        !  treatment of negative concentrations 
!-----------------------------------------------------------------------
    ln_trcrad   =  .false.  !Yona  artificially correct negative concentrations (T) or not (F)
/
!-----------------------------------------------------------------------
&namtrc_dmp    !   passive tracer newtonian damping
!-----------------------------------------------------------------------
/
!-----------------------------------------------------------------------
&namtrc_ice       !    Representation of sea ice growth & melt effects
!-----------------------------------------------------------------------
/
!-----------------------------------------------------------------------
&namtrc_trd       !   diagnostics on tracer trends        ('key_trdtrc')
!                          or mixed-layer trends          ('key_trdmld_trc')
!----------------------------------------------------------------------
/
!-----------------------------------------------------------------------
&namtrc_dia       !   parameters for passive tracer additional diagnostics
!----------------------------------------------------------------------
/
!----------------------------------------------------------------------
&namtrc_bc        !   data for boundary conditions
!-----------------------------------------------------------------------
/
